<?xml version="1.0"?>
<!-- generated on 2018-01-09 14:29:07.596000 by $Id: randomTrips.py 23999 2017-04-21 09:04:47Z behrisch $
  options: -n map.net.xml -r map.rou.xml -e 100 -l
-->
<routes xmlns:xsi="http://www.w3.org/2001/XMLSchema-instance" xsi:noNamespaceSchemaLocation="http://sumo.dlr.de/xsd/routes_file.xsd">
    <trip id="0" depart="0.00" from="51765313#4" to="-190317757"/>
    <trip id="1" depart="1.00" from="238627351" to="-190315563"/>
    <trip id="2" depart="2.00" from="-515064888" to="238671482#2"/>
    <trip id="3" depart="3.00" from="-195939455#10" to="190326111"/>
    <trip id="4" depart="4.00" from="-190315918#1" to="190303315#11"/>
    <trip id="5" depart="5.00" from="190303276" to="190326124#3"/>
    <trip id="6" depart="6.00" from="-190308970#22" to="190303280#1"/>
    <trip id="7" depart="7.00" from="190308982" to="-190308983#4"/>
    <trip id="8" depart="8.00" from="190308977#2" to="237795548#0"/>
    <trip id="9" depart="9.00" from="237852524#0" to="120682157#2"/>
    <trip id="10" depart="10.00" from="360893431#0" to="-190308983#2"/>
    <trip id="11" depart="11.00" from="516773833" to="190317770#2"/>
    <trip id="12" depart="12.00" from="-398255948#2" to="237520346#2"/>
    <trip id="13" depart="13.00" from="51765315#0" to="195939455#9"/>
    <trip id="14" depart="14.00" from="190326090#2" to="190317747#0"/>
    <trip id="15" depart="15.00" from="237538994" to="190326095#1"/>
    <trip id="16" depart="16.00" from="-190303328#1" to="-195939455#0"/>
    <trip id="17" depart="17.00" from="-190308986#2" to="325486011#7"/>
    <trip id="18" depart="18.00" from="-190303345#6" to="513994254"/>
    <trip id="19" depart="19.00" from="-190303328#1" to="-190308948"/>
    <trip id="20" depart="20.00" from="190288642#0" to="190303281#5"/>
    <trip id="21" depart="21.00" from="-190303345#6" to="238671476"/>
    <trip id="22" depart="22.00" from="-310458365#2" to="51765313#4"/>
    <trip id="23" depart="23.00" from="-190308965#6" to="-190315560#1"/>
    <trip id="24" depart="24.00" from="190315578" to="190315599#3"/>
    <trip id="25" depart="25.00" from="-190315575#2" to="316542721#2"/>
    <trip id="26" depart="26.00" from="190317769" to="51765313#5"/>
    <trip id="27" depart="27.00" from="-190303329#10" to="190308970#22"/>
    <trip id="28" depart="28.00" from="190311071" to="-237795548#0"/>
    <trip id="29" depart="29.00" from="-190326124#2" to="310458365#1"/>
    <trip id="30" depart="30.00" from="-190317774#10" to="-190308965#2"/>
    <trip id="31" depart="31.00" from="516773833" to="51765313#5"/>
    <trip id="32" depart="32.00" from="190308983#4" to="-237795547#1"/>
    <trip id="33" depart="33.00" from="325486011#2" to="325486011#7"/>
    <trip id="34" depart="34.00" from="237852524#0" to="-190308969#5"/>
    <trip id="35" depart="35.00" from="-514431701" to="190308978#1"/>
    <trip id="36" depart="36.00" from="-190317734" to="190317743#1"/>
    <trip id="37" depart="37.00" from="237538994" to="190315562#0"/>
    <trip id="38" depart="38.00" from="237795548#0" to="-190303317"/>
    <trip id="39" depart="39.00" from="-190308970#23" to="190308970#20"/>
    <trip id="40" depart="40.00" from="-190315598#1" to="190308970#23"/>
    <trip id="41" depart="41.00" from="-190288636#0" to="190303334#1"/>
    <trip id="42" depart="42.00" from="190317765#2" to="-237789686#1"/>
    <trip id="43" depart="43.00" from="-190308965#1" to="-237795547#1"/>
    <trip id="44" depart="44.00" from="-190308983#4" to="-515064888"/>
    <trip id="45" depart="45.00" from="-190303345#4" to="190308977#7"/>
    <trip id="46" depart="46.00" from="190311100#6" to="237743378"/>
    <trip id="47" depart="47.00" from="158016210" to="-190311109"/>
    <trip id="48" depart="48.00" from="237789685#0" to="-190288636#13"/>
    <trip id="49" depart="49.00" from="-190315587#9" to="120682157#4"/>
    <trip id="50" depart="50.00" from="190288636#6" to="190303334#5"/>
    <trip id="51" depart="51.00" from="237538994" to="190326114"/>
    <trip id="52" depart="52.00" from="190311089#0" to="190326109"/>
    <trip id="53" depart="53.00" from="190315913#0" to="-190309986#0"/>
    <trip id="54" depart="54.00" from="-190308983#4" to="51765313#4"/>
    <trip id="55" depart="55.00" from="-190315599#3" to="-190308970#19"/>
    <trip id="56" depart="56.00" from="190308970#11" to="513994254"/>
    <trip id="57" depart="57.00" from="190311126" to="-190326124#0"/>
    <trip id="58" depart="58.00" from="190308980#4" to="-190308957#0"/>
    <trip id="59" depart="59.00" from="-190308965#2" to="51765313#4"/>
    <trip id="60" depart="60.00" from="516773830#0" to="190303328#1"/>
    <trip id="61" depart="61.00" from="-190315919#1" to="238671482#17"/>
    <trip id="62" depart="62.00" from="190311127" to="-398255948#1"/>
    <trip id="63" depart="63.00" from="190308980#2" to="237789683#1"/>
    <trip id="64" depart="64.00" from="190311100#7" to="51765313#5"/>
    <trip id="65" depart="65.00" from="-190308970#22" to="325486011#7"/>
    <trip id="66" depart="66.00" from="-190303336#1" to="190326111"/>
    <trip id="67" depart="67.00" from="-190308983#2" to="-190308970#29"/>
    <trip id="68" depart="68.00" from="-238627353#0" to="325486011#3"/>
    <trip id="69" depart="69.00" from="190308983#2" to="-195939455#2"/>
    <trip id="70" depart="70.00" from="190303262" to="-332065534#2"/>
    <trip id="71" depart="71.00" from="190303294#0" to="-190317781#6"/>
    <trip id="72" depart="72.00" from="237795548#0" to="332064895"/>
    <trip id="73" depart="73.00" from="-190288640#2" to="190326091#1"/>
    <trip id="74" depart="74.00" from="-190288636#6" to="190315920#0"/>
    <trip id="75" depart="75.00" from="-190315594#0" to="-190317765#1"/>
    <trip id="76" depart="76.00" from="310458362#1" to="237538994"/>
    <trip id="77" depart="77.00" from="190288640#5" to="-190303301#3"/>
    <trip id="78" depart="78.00" from="51765313#4" to="-190308960"/>
    <trip id="79" depart="79.00" from="190326116" to="190308986#2"/>
    <trip id="80" depart="80.00" from="-190308986#0" to="190288640#5"/>
    <trip id="81" depart="81.00" from="-238615740#3" to="-190303334#6"/>
    <trip id="82" depart="82.00" from="190315588" to="190315598#1"/>
    <trip id="83" depart="83.00" from="190288636#2" to="190317774#10"/>
    <trip id="84" depart="84.00" from="-190288636#12" to="194786953#2"/>
    <trip id="85" depart="85.00" from="190308969#5" to="-195939455#1"/>
    <trip id="86" depart="86.00" from="190309989#0" to="190315574"/>
    <trip id="87" depart="87.00" from="-190317743#1" to="-190326114"/>
    <trip id="88" depart="88.00" from="-190317774#10" to="190303328#1"/>
    <trip id="89" depart="89.00" from="51765315#0" to="325486011#7"/>
    <trip id="90" depart="90.00" from="-190303345#0" to="-190326124#0"/>
    <trip id="91" depart="91.00" from="514456343" to="-190308957#0"/>
    <trip id="92" depart="92.00" from="-190308986#3" to="-190311089#0"/>
    <trip id="93" depart="93.00" from="190308970#30" to="325486011#7"/>
    <trip id="94" depart="94.00" from="325486003#6" to="-514456343"/>
    <trip id="95" depart="95.00" from="-515060916#0" to="-190303265"/>
    <trip id="96" depart="96.00" from="-513994254" to="190308976"/>
    <trip id="97" depart="97.00" from="-190309990#1" to="-190311135"/>
    <trip id="98" depart="98.00" from="190303321" to="-190326102#2"/>
    <trip id="99" depart="99.00" from="190315583" to="238671482#17"/>
</routes>
